
  OWA STORM WATER MANAGEMENT MODEL - VERSION v5.2.3 (OWA 2023-03-28)
  ------------------------------------------------------------

  Gamma 
  Anon 
  
  ****************
  Analysis Options
  ****************
  Flow Units ............... CFS
  Process Models:
    Rainfall/Runoff ........ YES
    RDII ................... NO
    Snowmelt ............... NO
    Groundwater ............ NO
    Flow Routing ........... YES
    Ponding Allowed ........ YES
    Water Quality .......... YES
  Infiltration Method ...... GREEN_AMPT
  Flow Routing Method ...... DYNWAVE
  Surcharge Method ......... EXTRAN
  Starting Date ............ 06/01/2020 00:00:00
  Ending Date .............. 06/08/2020 00:00:00
  Antecedent Dry Days ...... 5.0
  Report Time Step ......... 00:05:00
  Wet Time Step ............ 00:01:00
  Dry Time Step ............ 00:01:00
  Routing Time Step ........ 60.00 sec
  Variable Time Step ....... YES
  Maximum Trials ........... 8
  Number of Threads ........ 1
  Head Tolerance ........... 0.005000 ft
  
  
  **************************        Volume         Depth
  Runoff Quantity Continuity     acre-feet        inches
  **************************     ---------       -------
  Total Precipitation ......        35.526         2.070
  Evaporation Loss .........         0.000         0.000
  Infiltration Loss ........         8.686         0.506
  Surface Runoff ...........        26.305         1.533
  Final Storage ............         0.633         0.037
  Continuity Error (%) .....        -0.275
  
  
  **************************           TSS
  Runoff Quality Continuity            lbs
  **************************    ----------
  Initial Buildup ..........      3394.520
  Surface Buildup ..........      1948.085
  Wet Deposition ...........         0.000
  Sweeping Removal .........         0.000
  Infiltration Loss ........         0.000
  BMP Removal ..............         0.000
  Surface Runoff ...........      1742.567
  Remaining Buildup ........      3600.038
  Continuity Error (%) .....         0.000
  
  
  **************************        Volume        Volume
  Flow Routing Continuity        acre-feet      10^6 gal
  **************************     ---------     ---------
  Dry Weather Inflow .......         0.000         0.000
  Wet Weather Inflow .......        26.260         8.557
  Groundwater Inflow .......         0.000         0.000
  RDII Inflow ..............         0.000         0.000
  External Inflow ..........         0.000         0.000
  External Outflow .........         5.934         1.934
  Flooding Loss ............         5.614         1.829
  Evaporation Loss .........         0.000         0.000
  Exfiltration Loss ........         0.000         0.000
  Initial Stored Volume ....         0.000         0.000
  Final Stored Volume ......        14.689         4.787
  Continuity Error (%) .....         0.087
  
  
  **************************           TSS
  Quality Routing Continuity           lbs
  **************************    ----------
  Dry Weather Inflow .......         0.000
  Wet Weather Inflow .......      1739.557
  Groundwater Inflow .......         0.000
  RDII Inflow ..............         0.000
  External Inflow ..........         0.000
  External Outflow .........        54.162
  Flooding Loss ............       369.364
  Exfiltration Loss ........         0.000
  Mass Reacted .............      1309.623
  Initial Stored Mass ......         0.000
  Final Stored Mass ........         1.236
  Continuity Error (%) .....         0.297
  
  
  ***************************
  Time-Step Critical Elements
  ***************************
  Link 3C2 (64.10%)
  Link 5C4 (13.92%)
  
  
  ********************************
  Highest Flow Instability Indexes
  ********************************
  Link O3 (128)
  Link 3C2 (128)
  Link O2 (101)
  Link O5 (13)
  Link 5C4 (13)
  
  
  *********************************
  Most Frequent Nonconverging Nodes
  *********************************
  Node O (0.02%)
  Node J18 (0.01%)
  Node J22 (0.01%)
  Node J23 (0.01%)
  Node J26 (0.01%)
  
  
  *************************
  Routing Time Step Summary
  *************************
  Minimum Time Step           :     4.72 sec
  Average Time Step           :    32.76 sec
  Maximum Time Step           :    60.00 sec
  % of Time in Steady State   :     0.00
  Average Iterations per Step :     2.94
  % of Steps Not Converging   :     0.02
  Time Step Frequencies       :
     60.000 - 23.031 sec      :    51.34 %
     23.031 -  8.841 sec      :    44.20 %
      8.841 -  3.393 sec      :     4.46 %
      3.393 -  1.303 sec      :     0.00 %
      1.303 -  0.500 sec      :     0.00 %
  
  
  ***************************
  Subcatchment Runoff Summary
  ***************************
  
  ------------------------------------------------------------------------------------------------------------------------------
                            Total      Total      Total      Total     Imperv       Perv      Total       Total     Peak  Runoff
                           Precip      Runon       Evap      Infil     Runoff     Runoff     Runoff      Runoff   Runoff   Coeff
  Subcatchment                 in         in         in         in         in         in         in    10^6 gal      CFS
  ------------------------------------------------------------------------------------------------------------------------------
  102                        2.07       0.00       0.00       0.59       1.13       0.33       1.46        0.11    26.83   0.703
  103                        2.07       0.00       0.00       0.74       0.83       0.48       1.31        0.20    49.22   0.632
  115                        2.07       0.00       0.00       0.95       0.77       0.34       1.10        0.31    54.08   0.532
  120                        2.07       0.00       0.00       0.61       1.05       0.39       1.44        0.26    62.86   0.695
  1472                       2.07       0.00       0.00       0.45       1.29       0.30       1.59        0.14    33.36   0.767
  1497                       2.07       0.00       0.00       0.16       1.73       0.13       1.86        0.76   169.98   0.900
  1499                       2.07       0.00       0.00       0.05       1.91       0.05       1.97        1.35   285.75   0.951
  1503                       2.07       0.00       0.00       0.31       1.49       0.23       1.72        0.06    14.37   0.832
  1506                       2.07       0.00       0.00       0.64       1.03       0.37       1.40        0.39    94.54   0.677
  1570                       2.07       0.00       0.00       0.88       0.65       0.53       1.18        0.25    59.80   0.568
  1648                       2.07       0.00       0.00       0.74       0.91       0.40       1.31        0.10    23.44   0.633
  1736                       2.07       0.00       0.00       0.59       1.11       0.35       1.45        0.59   144.38   0.703
  1780                       2.07       0.00       0.00       0.81       0.81       0.43       1.24        0.08    19.13   0.599
  54                         2.07       0.00       0.00       0.15       1.75       0.12       1.87        1.85   406.56   0.903
  57                         2.07       0.00       0.00       1.16       0.64       0.25       0.89        0.25    46.59   0.432
  62                         2.07       0.00       0.00       0.79       0.73       0.54       1.27        0.36    90.82   0.613
  93                         2.07       0.00       0.00       0.57       1.09       0.38       1.47        0.33    81.31   0.710
  94                         2.07       0.00       0.00       0.76       0.71       0.59       1.30        0.45   110.62   0.627
  97                         2.07       0.00       0.00       0.65       0.99       0.41       1.39        0.74   183.35   0.674
  
  
  ****************************
  Subcatchment Washoff Summary
  ****************************
  
  ----------------------------------
                                 TSS
  Subcatchment                   lbs
  ----------------------------------
  102                         22.831
  103                         40.534
  115                         62.617
  120                         53.132
  1472                        28.151
  1497                       153.922
  1499                       274.130
  1503                        12.737
  1506                        78.456
  1570                        51.029
  1648                        19.609
  1736                       120.407
  1780                        15.963
  54                         375.303
  57                          50.046
  62                          74.095
  93                          66.741
  94                          91.604
  97                         151.261
  ----------------------------------
  System                    1742.567
  
  
  ******************
  Node Depth Summary
  ******************
  
  ---------------------------------------------------------------------------------
                                 Average  Maximum  Maximum  Time of Max    Reported
                                   Depth    Depth      HGL   Occurrence   Max Depth
  Node                 Type         Feet     Feet     Feet  days hr:min        Feet
  ---------------------------------------------------------------------------------
  J13                  JUNCTION     0.03     1.00   889.17     0  00:04        1.00
  J14                  JUNCTION     0.05     1.00   882.00     0  00:06        1.00
  J15                  JUNCTION     0.11     1.00   872.00     0  00:10        1.00
  J18                  JUNCTION     0.07     1.00   875.22     0  00:05        1.00
  J19                  JUNCTION     0.02     0.25   858.53     2  12:07        0.25
  J22                  JUNCTION     0.03     0.70   879.70     0  00:25        0.70
  J23                  JUNCTION     0.05     0.81   868.81     0  00:09        0.81
  J24                  JUNCTION     0.10     0.71   846.71     5  12:06        0.71
  J25                  JUNCTION     0.12     0.31   832.81     6  06:00        0.31
  J26                  JUNCTION     0.18     1.00   822.50     0  00:15        1.00
  O                    OUTFALL      0.00     0.00   810.00     0  00:00        0.00
  11                   STORAGE      0.56    10.82   885.04     0  00:22       10.80
  9                    STORAGE      0.17    10.00   898.17     0  00:08       10.00
  5                    STORAGE      0.32    10.00   878.00     0  00:09       10.00
  4                    STORAGE      3.73     4.95   850.95     5  12:00        4.95
  10                   STORAGE      4.94     6.93   865.21     2  12:00        6.93
  3                    STORAGE      0.23     0.65   833.15     6  06:00        0.65
  1                    STORAGE      2.10     3.49   813.49     2  00:00        3.49
  2                    STORAGE      0.32     2.28   823.78     0  00:16        2.24
  6                    STORAGE      5.84     7.33   878.33     1  12:00        7.33
  7                    STORAGE      0.18     5.98   884.98     0  00:18        5.96
  8                    STORAGE      0.24     5.90   886.90     0  00:19        5.90
  
  
  *******************
  Node Inflow Summary
  *******************
  
  -------------------------------------------------------------------------------------------------
                                  Maximum  Maximum                  Lateral       Total        Flow
                                  Lateral    Total  Time of Max      Inflow      Inflow     Balance
                                   Inflow   Inflow   Occurrence      Volume      Volume       Error
  Node                 Type           CFS      CFS  days hr:min    10^6 gal    10^6 gal     Percent
  -------------------------------------------------------------------------------------------------
  J13                  JUNCTION      0.00    15.65     0  00:08           0       0.212       0.006
  J14                  JUNCTION      0.00    11.55     0  00:19           0       0.477      -0.040
  J15                  JUNCTION      0.00     3.61     0  00:10           0       0.445      -0.021
  J18                  JUNCTION      0.00    16.34     0  00:22           0        1.33      -0.060
  J19                  JUNCTION      0.00     2.06     2  12:01           0        1.11       0.002
  J22                  JUNCTION      0.00    12.00     0  00:18           0       0.362      -0.018
  J23                  JUNCTION      0.00    15.82     0  00:10           0       0.827       0.039
  J24                  JUNCTION      0.00     3.40     5  12:01           0        1.42      -0.005
  J25                  JUNCTION      0.00     2.39     6  06:01           0        1.48       0.405
  J26                  JUNCTION      0.00     5.90     0  00:16           0        1.54       0.020
  O                    OUTFALL       0.00     5.85     2  00:01           0        1.93       0.000
  11                   STORAGE     303.89   303.89     0  00:10        1.33        1.33       0.155
  9                    STORAGE     110.62   110.62     0  00:10       0.449       0.449      -0.478
  5                    STORAGE     216.71   216.71     0  00:10        0.88        1.26       0.546
  4                    STORAGE     376.57   392.39     0  00:10        1.71        3.65       0.986
  10                   STORAGE     251.29   256.47     0  00:10        1.08        1.64       0.145
  3                    STORAGE      46.59    46.59     0  00:10       0.246        1.67      -0.130
  1                    STORAGE     406.56   411.30     0  00:10        1.84        3.38       0.125
  2                    STORAGE      14.37    14.50     0  00:10      0.0626        1.54      -0.186
  6                    STORAGE      49.22    64.01     0  00:10       0.199       0.789       0.909
  7                    STORAGE      86.63    86.63     0  00:10       0.362       0.362       0.051
  8                    STORAGE      94.54   100.02     0  00:10       0.385       0.476      -0.081
  
  
  **********************
  Node Surcharge Summary
  **********************
  
  Surcharging occurs when water rises above the top of the highest conduit.
  ---------------------------------------------------------------------
                                               Max. Height   Min. Depth
                                   Hours       Above Crown    Below Rim
  Node                 Type      Surcharged           Feet         Feet
  ---------------------------------------------------------------------
  J13                  JUNCTION        0.60          0.000        0.000
  J14                  JUNCTION        1.84          0.000        0.000
  J15                  JUNCTION        4.78          0.000        0.000
  J18                  JUNCTION        3.94          0.000        0.000
  J26                  JUNCTION        0.12          0.000        0.000
  
  
  *********************
  Node Flooding Summary
  *********************
  
  Flooding refers to all water that overflows a node, whether it ponds or not.
  --------------------------------------------------------------------------
                                                             Total   Maximum
                                 Maximum   Time of Max       Flood    Ponded
                        Hours       Rate    Occurrence      Volume     Depth
  Node                 Flooded       CFS   days hr:min    10^6 gal      Feet
  --------------------------------------------------------------------------
  J13                     0.60     11.39      0  00:18       0.121     0.000
  J14                     1.84      6.92      0  00:22       0.249     0.000
  J15                     4.76      3.56      0  00:10       0.066     0.000
  J18                     3.94     11.61      0  00:23       0.779     0.000
  J26                     0.12      0.74      0  00:16       0.002     0.000
  9                       0.17     94.60      0  00:10       0.239     0.000
  5                       0.15    196.96      0  00:10       0.373     0.000
  
  
  **********************
  Storage Volume Summary
  **********************
  
  ------------------------------------------------------------------------------------------------
                         Average    Avg   Evap  Exfil     Maximum    Max    Time of Max    Maximum
                          Volume   Pcnt   Pcnt   Pcnt      Volume   Pcnt     Occurrence    Outflow
  Storage Unit          1000 ft³   Full   Loss   Loss    1000 ft³   Full    days hr:min        CFS
  ------------------------------------------------------------------------------------------------
  11                       6.874    2.5    0.0    0.0     155.326   56.4       0  00:22      16.34
  9                        0.196    1.5    0.0    0.0      12.966  100.0       0  00:08      15.65
  5                        1.280    2.8    0.0    0.0      45.480  100.0       0  00:09      19.42
  4                      348.774   31.1    0.0    0.0     479.302   42.7       5  12:00       3.40
  10                     136.913   19.8    0.0    0.0     217.022   31.5       2  12:00       2.06
  3                       18.759    1.7    0.0    0.0      52.598    4.8       6  06:00       2.39
  1                      165.033   15.7    0.0    0.0     282.891   27.0       2  00:00       5.85
  2                        0.242    0.9    0.0    0.0       3.913   13.8       0  00:16       5.90
  6                       64.301   11.3    0.0    0.0     103.964   18.3       1  12:00       2.78
  7                        0.951    1.3    0.0    0.0      37.815   51.0       0  00:18      12.00
  8                        1.455    1.0    0.0    0.0      45.839   32.6       0  00:19      11.55
  
  
  ***********************
  Outfall Loading Summary
  ***********************
  
  -------------------------------------------------------------------------
                         Flow       Avg       Max       Total         Total
                         Freq      Flow      Flow      Volume           TSS
  Outfall Node           Pcnt       CFS       CFS    10^6 gal           lbs
  -------------------------------------------------------------------------
  O                      6.18      4.04      5.85       1.934        54.170
  -------------------------------------------------------------------------
  System                 6.18      4.04      5.85       1.934        54.170
  
  
  ********************
  Link Flow Summary
  ********************
  
  -----------------------------------------------------------------------------
                                 Maximum  Time of Max   Maximum    Max/    Max/
                                  |Flow|   Occurrence   |Veloc|    Full    Full
  Link                 Type          CFS  days hr:min    ft/sec    Flow   Depth
  -----------------------------------------------------------------------------
  11C10                CONDUIT      5.88     0  00:05     10.65    1.06    1.00
  5C4                  CONDUIT     15.83     0  00:10     28.22    0.99    0.90
  4C3                  CONDUIT      3.23     5  12:09     12.30    0.58    0.58
  3C2                  CONDUIT      2.41     6  06:01      5.36    0.21    0.60
  2C1                  CONDUIT      5.67     0  00:14      7.37    1.02    1.00
  9C8                  CONDUIT      7.56     0  00:04      9.75    1.00    1.00
  8C6                  CONDUIT      5.97     0  00:05     10.68    1.02    1.00
  6C5                  CONDUIT      3.61     0  00:10      4.97    1.55    1.00
  7C6                  CONDUIT     11.99     0  00:18     14.68    0.44    0.75
  10C4                 CONDUIT      2.03     2  12:08      0.25    0.00    0.40
  O9                   ORIFICE     15.65     0  00:08                          
  O8                   ORIFICE     11.55     0  00:19                          
  O6                   ORIFICE      2.78     1  12:01                          
  O10                  ORIFICE      2.06     2  12:01                          
  O11                  ORIFICE     16.34     0  00:22                          
  O7                   ORIFICE     12.00     0  00:18                          
  O5                   ORIFICE     15.82     0  00:10                          
  O4                   ORIFICE      3.40     5  12:01                          
  O3                   ORIFICE      2.39     6  06:01                          
  O2                   ORIFICE      5.90     0  00:16                          
  O1                   ORIFICE      5.85     2  00:01                          
  
  
  ***************************
  Flow Classification Summary
  ***************************
  
  -------------------------------------------------------------------------------------
                      Adjusted    ---------- Fraction of Time in Flow Class ---------- 
                       /Actual         Up    Down  Sub   Sup   Up    Down  Norm  Inlet 
  Conduit               Length    Dry  Dry   Dry   Crit  Crit  Crit  Crit  Ltd   Ctrl  
  -------------------------------------------------------------------------------------
  11C10                   1.00   0.00  0.33  0.00  0.67  0.00  0.00  0.00  0.97  0.00
  5C4                     1.00   0.00  0.56  0.00  0.40  0.04  0.00  0.00  1.00  0.00
  4C3                     1.00   0.00  0.79  0.00  0.11  0.11  0.00  0.00  0.16  0.00
  3C2                     1.00   0.00  0.00  0.00  0.04  0.96  0.00  0.00  0.96  0.00
  2C1                     1.00   0.00  0.00  0.00  0.97  0.03  0.00  0.00  1.00  0.00
  9C8                     1.00   0.00  0.00  0.00  1.00  0.00  0.00  0.00  0.95  0.00
  8C6                     1.00   0.00  0.66  0.00  0.34  0.00  0.00  0.00  0.99  0.00
  6C5                     1.00   0.00  0.90  0.00  0.10  0.00  0.00  0.00  0.96  0.00
  7C6                     1.00   0.00  0.81  0.00  0.19  0.01  0.00  0.00  0.99  0.00
  10C4                    1.00   0.00  0.81  0.00  0.19  0.00  0.00  0.00  0.64  0.00
  
  
  *************************
  Conduit Surcharge Summary
  *************************
  
  ----------------------------------------------------------------------------
                                                           Hours        Hours 
                         --------- Hours Full --------   Above Full   Capacity
  Conduit                Both Ends  Upstream  Dnstream   Normal Flow   Limited
  ----------------------------------------------------------------------------
  11C10                       3.94      3.95    167.90      0.02         0.01
  5C4                         0.01      0.01    167.84      0.01         0.01
  3C2                         0.01      0.01      0.42      0.01         0.01
  2C1                         0.12      0.12    145.03      0.04         0.01
  9C8                         0.60      0.60      1.98      0.01         0.01
  8C6                         1.83      1.84    167.89      0.02         0.01
  6C5                         0.80      4.77      1.45      4.58         0.01
  7C6                         0.01      0.01    167.87      0.01         0.01
  
  
  ***************************
  Link Pollutant Load Summary
  ***************************
  
  ----------------------------------
                                 TSS
  Link                           lbs
  ----------------------------------
  11C10                      111.379
  5C4                        125.242
  4C3                          0.509
  3C2                         40.677
  2C1                         53.465
  9C8                         18.524
  8C6                         46.066
  6C5                         44.451
  7C6                         73.557
  10C4                        15.033
  O9                          43.243
  O8                          96.558
  O6                          35.336
  O10                         14.926
  O11                        268.991
  O7                          73.529
  O5                         125.151
  O4                           0.508
  O3                          40.416
  O2                          53.268
  O1                          54.170
  

  Analysis begun on:  Tue Dec  5 16:31:47 2023
  Analysis ended on:  Tue Dec  5 16:32:07 2023
  Total elapsed time: 00:00:20